32

C 1.64646 -0.59949 0.00031 
C 4.40022 0.13338 -0.00017 
C 2.66399 -1.61842 0.00032 
C 2.05881 0.80420 0.00033
C 3.35337 1.15492 0.00008
C 3.96275 -1.26328 0.00013 
H 3.65967 2.19750 0.00005 
C 0.28570 -0.65827 0.00015 
C -0.28570 0.65827 0.00013 
C -0.81495 -1.68199 -0.00024 
C -2.05881 -0.80420 -0.00022 
C -1.64646 0.59949 -0.00014 
H 4.73777 -2.02411 0.00019 
H 2.37463 -2.66476 0.00056 
C -2.66399 1.61842 -0.00028 
H -0.77693 -2.33246 -0.88068 
H -0.77720 -2.33313 0.87972 
C 5.70888 0.44939 -0.00067 
C -3.96275 1.26328 -0.00027 
C -3.35337 -1.15492 -0.00016 
C -4.40022 -0.13338 -0.00006 
C -5.70888 -0.44939 0.00024 
H -4.73777 2.02411 -0.00042 
H -2.37463 2.66476 -0.00045 
H -3.65967 -2.19750 -0.00019 
C 0.81495 1.68199 0.00056 
H 0.77713 2.33333 -0.87923 
H 0.77700 2.33226 0.88116 
H -6.47570 0.31750 0.00024 
H -6.04192 -1.48155 0.00027
H 6.47570 -0.31750 -0.00080 
H 6.04192 1.48155 -0.00075
